<edges> 
<edge id="edgeR-0-0" from="node1" to="node2"/>
</edges>
