<?xml version="1.0" encoding="UTF-8"?>

<!-- generated on 05/14/21 08:03:35 by Eclipse SUMO netedit Version 1.8.0
<configuration xmlns:xsi="http://www.w3.org/2001/XMLSchema-instance" xsi:noNamespaceSchemaLocation="http://sumo.dlr.de/xsd/netconvertConfiguration.xsd">

    <input>
        <sumo-net-file value="D:\PKU\passive\veins_vlc\examples\veins-vlc\my.net.xml"/>
    </input>

    <output>
        <output-file value="D:\PKU\passive\veins_vlc\examples\veins-vlc\my.net.xml"/>
    </output>

    <processing>
        <geometry.min-radius.fix.railways value="false"/>
        <geometry.max-grade.fix value="false"/>
        <offset.disable-normalization value="true"/>
        <lefthand value="false"/>
    </processing>

    <junctions>
        <no-internal-links value="true"/>
        <no-turnarounds value="true"/>
        <junctions.corner-detail value="5"/>
        <junctions.limit-turn-speed value="5.5"/>
        <rectangular-lane-cut value="false"/>
    </junctions>

    <pedestrian>
        <walkingareas value="false"/>
    </pedestrian>

    <report>
        <aggregate-warnings value="5"/>
    </report>

</configuration>
-->

<net version="1.6" junctionCornerDetail="5" limitTurnSpeed="5.50" xmlns:xsi="http://www.w3.org/2001/XMLSchema-instance" xsi:noNamespaceSchemaLocation="http://sumo.dlr.de/xsd/net_file.xsd">

    <location netOffset="0.00,0.00" convBoundary="0.00,0.00,2000.00,0.00" origBoundary="0.00,0.00,2000.00,2000.00" projParameter="!"/>

    <edge id="edgeR-0-0" from="node1" to="node2" priority="-1">
        <lane id="edgeR-0-0_0" index="0" speed="13.89" length="2000.00" shape="0.00,-4.80 2000.00,-4.80"/>
        <lane id="edgeR-0-0_1" index="1" speed="13.89" length="2000.00" shape="0.00,-1.60 2000.00,-1.60"/>
    </edge>

    <junction id="node1" type="dead_end" x="0.00" y="0.00" incLanes="" intLanes="" shape="0.00,0.00 0.00,-6.40"/>
    <junction id="node2" type="dead_end" x="2000.00" y="0.00" incLanes="edgeR-0-0_0 edgeR-0-0_1" intLanes="" shape="2000.00,-6.40 2000.00,0.00"/>

</net>
