<configuration>
   <input>
     <net-file value="my_flow.net.xml"/>
     <route-files value="my_flow.rou.xml"/>
   </input>
   <time>
     <begin value="0"/>
     <end value="2000"/>
   </time>
   <processing>
     <extrapolate-departpos value="true"/>
   </processing>
</configuration>
