
<nodes> 
<node id="node1" x="0.0" y="0.0"/> 
<node id="node2" x="5000.0" y="0.0"/> 
</nodes> 

