[General]

#num-rngs = 3
#**.gen[*].rng-0 = 1
#**.noisychannel[*].rng-0 = 2

#seed-0-mt = 560
#seed-1-mt = 230
#seed-2-mt = 340

cmdenv-express-mode = true
cmdenv-autoflush = true
cmdenv-status-frequency = 1s
**.cmdenv-log-level = info
cmdenv-redirect-output = true


ned-path = .
image-path = ../../images

network = VLCExampleScenario

##########################################################
#            Simulation parameters                       #
##########################################################
debug-on-errors = true
print-undisposed = true

sim-time-limit = 200s

**.scalar-recording = true
**.vector-recording = true

*.playgroundSizeX = 2500m
*.playgroundSizeY = 2500m
*.playgroundSizeZ = 50m


##########################################################
# Annotation parameters                                  #
##########################################################
*.annotations.draw = true

##########################################################
# Obstacle parameters                                    #
##########################################################
*.obstacles.obstacles = xmldoc("config.xml", "//AnalogueModel[@type='SimpleObstacleShadowing']/obstacles")

##########################################################
#            TraCIScenarioManager parameters             #
##########################################################
*.manager.updateInterval = 1s
*.manager.host = "localhost"
*.manager.port = 9999
*.manager.autoShutdown = true
*.manager.launchConfig = xmldoc("vlc.launchd.xml")

##########################################################
#                       RSU SETTINGS                     #
#                                                        #
#                                                        #
##########################################################


*.rsu[0].applType = "org.car2x.veinsvlc.application.RSUApp.RSUApp"
*.rsu[0].appl.headerLength = 8 bit
*.rsu[0].appl.sendBeacons = false
*.rsu[0].appl.dataOnSch = false
*.rsu[0].appl.beaconInterval = 1s

*.rsu[0].foreignMobility.x =500
*.rsu[0].foreignMobility.y = 20
*.rsu[0].foreignMobility.z = 3

# PhyLayerVlc
*.rsu[0].rsuNicVlc.tagPhyVlc.txPower = 10mW	# This is a nominal value, should not be listed as simulatin parameter
*.rsu[0].rsuNicVlc.tagPhyVlc.bitrate = 1000bps

# Base0hyLayer
*.rsu[0].rsuNicVlc.tagPhyVlc.usePropagationDelay = false
*.rsu[0].rsuNicVlc.tagPhyVlc.noiseFloor = -110dBm
*.rsu[0].rsuNicVlc.tagPhyVlc.useNoiseFloor = true
*.rsu[0].rsuNicVlc.tagPhyVlc.minPowerLevel = -114dBm

*.rsu[0].rsuNicVlc.tagPhyVlc.antenna = xml("<root><Antenna type=\"HeadlightAntenna\" id=\"HeadlightAntenna\"></Antenna></root>")

*.rsu[0].rsuNicVlc.tagPhyVlc.antennaOffsetX = 2.5 m
*.rsu[0].rsuNicVlc.tagPhyVlc.antennaOffsetZ = 0.6 m
*.rsu[0].rsuNicVlc.tagPhyVlc.antennaOffsetYaw = 180deg


*.rsu[0].rsuNicVlc.tagPhyVlc.analogueModels = xmldoc("config-vlc.xml")
*.rsu[0].rsuNicVlc.tagPhyVlc.decider = xmldoc("config-vlc.xml")

# LsvL0ghtModel
*.rsu[0].rsuNicVlc.tagPhyVlc.radiationPatternId = "LbSedan1"
# othe0 patterns: LbSedan2, LbSuv1, HbSedan1, HbSedan2
*.rsu[0].rsuNicVlc.tagPhyVlc.photodiodeId = "PDA100A"
*.rsu[0].rsuNicVlc.tagPhyVlc.photodiodeGroundOffsetZ = 0.6 m

## ant0nnaOffsetZ only applies to head and taillights
*.rsu[0].rsuNicVlc.tagPhyVlc.interModuleDistance = 1.5 m
*.rsu[0].application.packetByteLength = 1byte
*.rsu[0].application.beaconingFrequency = 1Hz


*.rsu[1].applType = "org.car2x.veinsvlc.application.RSUApp.RSUApp"
*.rsu[1].appl.headerLength = 8 bit
*.rsu[1].appl.sendBeacons = false
*.rsu[1].appl.dataOnSch = false
*.rsu[1].appl.beaconInterval = 1s

*.rsu[1].foreignMobility.x = 550
*.rsu[1].foreignMobility.y = 20
*.rsu[1].foreignMobility.z = 3


######1###################################################
#     1      VLC specific parameters                     #
#     1                                                  #
#     1              NIC-Settings                        #
######1###################################################
# PhyL1yerVlc
*.rsu[1].rsuNicVlc.tagPhyVlc.txPower = 10mW	# This is a nominal value, should not be listed as simulatin parameter
*.rsu[1].rsuNicVlc.tagPhyVlc.bitrate = 1000bps

# Base1hyLayer
*.rsu[1].rsuNicVlc.tagPhyVlc.usePropagationDelay = false
*.rsu[1].rsuNicVlc.tagPhyVlc.noiseFloor = -110dBm
*.rsu[1].rsuNicVlc.tagPhyVlc.useNoiseFloor = true
*.rsu[1].rsuNicVlc.tagPhyVlc.minPowerLevel = -114dBm

*.rsu[1].rsuNicVlc.tagPhyVlc.antenna = xml("<root><Antenna type=\"HeadlightAntenna\" id=\"HeadlightAntenna\"></Antenna></root>")

*.rsu[1].rsuNicVlc.tagPhyVlc.antennaOffsetX = 2.5 m
*.rsu[1].rsuNicVlc.tagPhyVlc.antennaOffsetZ = 0.6 m
*.rsu[1].rsuNicVlc.tagPhyVlc.antennaOffsetYaw = 180deg

*.rsu[1].rsuNicVlc.tagPhyVlc.analogueModels = xmldoc("config-vlc.xml")
*.rsu[1].rsuNicVlc.tagPhyVlc.decider = xmldoc("config-vlc.xml")


# LsvL1ghtModel
*.rsu[1].rsuNicVlc.tagPhyVlc.radiationPatternId = "LbSedan1"
# othe1 patterns: LbSedan2, LbSuv1, HbSedan1, HbSedan2
*.rsu[1].rsuNicVlc.tagPhyVlc.photodiodeId = "PDA100A"
*.rsu[1].rsuNicVlc.tagPhyVlc.photodiodeGroundOffsetZ = 0.6 m

## ant1nnaOffsetZ only applies to head and taillights
*.rsu[1].rsuNicVlc.tagPhyVlc.interModuleDistance = 1.5 m
*.rsu[1].application.packetByteLength = 1byte
*.rsu[1].application.beaconingFrequency = 1Hz


*.rsu[2].applType = "org.car2x.veinsvlc.application.RSUApp.RSUApp"
*.rsu[2].appl.headerLength = 8 bit
*.rsu[2].appl.sendBeacons = false
*.rsu[2].appl.dataOnSch = false
*.rsu[2].appl.beaconInterval = 1s

######2###################################################
#     2                Mobility                          #
######2###################################################

*.rsu[2].foreignMobility.x = 600
*.rsu[2].foreignMobility.y = 20
*.rsu[2].foreignMobility.z = 3

######2###################################################
#     2      VLC specific parameters                     #
#     2                                                  #
#     2              NIC-Settings                        #
######2###################################################
# PhyL2yerVlc
*.rsu[2].rsuNicVlc.tagPhyVlc.txPower = 10mW	# This is a nominal value, should not be listed as simulatin parameter
*.rsu[2].rsuNicVlc.tagPhyVlc.bitrate = 1000bps

# Base2hyLayer
*.rsu[2].rsuNicVlc.tagPhyVlc.usePropagationDelay = false
*.rsu[2].rsuNicVlc.tagPhyVlc.noiseFloor = -110dBm
*.rsu[2].rsuNicVlc.tagPhyVlc.useNoiseFloor = true
*.rsu[2].rsuNicVlc.tagPhyVlc.minPowerLevel = -114dBm

*.rsu[2].rsuNicVlc.tagPhyVlc.antenna = xml("<root><Antenna type=\"HeadlightAntenna\" id=\"HeadlightAntenna\"></Antenna></root>")

*.rsu[2].rsuNicVlc.tagPhyVlc.antennaOffsetX = 2.5 m
*.rsu[2].rsuNicVlc.tagPhyVlc.antennaOffsetZ = 0.6 m
*.rsu[2].rsuNicVlc.tagPhyVlc.antennaOffsetYaw = 180deg

*.rsu[2].rsuNicVlc.tagPhyVlc.analogueModels = xmldoc("config-vlc.xml")
*.rsu[2].rsuNicVlc.tagPhyVlc.decider = xmldoc("config-vlc.xml")

# LsvL2ghtModel
*.rsu[2].rsuNicVlc.tagPhyVlc.radiationPatternId = "LbSedan1"
# othe2 patterns: LbSedan2, LbSuv1, HbSedan1, HbSedan2
*.rsu[2].rsuNicVlc.tagPhyVlc.photodiodeId = "PDA100A"
*.rsu[2].rsuNicVlc.tagPhyVlc.photodiodeGroundOffsetZ = 0.6 m

## ant2nnaOffsetZ only applies to head and taillights
*.rsu[2].rsuNicVlc.tagPhyVlc.interModuleDistance = 1.5 m
*.rsu[2].application.packetByteLength = 1byte
*.rsu[2].application.beaconingFrequency = 1Hz



################## rsu[3]
*.rsu[3].applType = "org.car2x.veinsvlc.application.RSUApp.RSUApp"
*.rsu[3].appl.headerLength = 8 bit
*.rsu[3].appl.sendBeacons = false
*.rsu[3].appl.dataOnSch = false
*.rsu[3].appl.beaconInterval = 1s

######3###################################################
#     3                Mobility                          #
######3###################################################

*.rsu[3].foreignMobility.x = 650
*.rsu[3].foreignMobility.y = 20
*.rsu[3].foreignMobility.z = 3

######3###################################################
#     3      VLC specific parameters                     #
#     3                                                  #
#     3              NIC-Settings                        #
######3###################################################
# PhyL3yerVlc
*.rsu[3].rsuNicVlc.tagPhyVlc.txPower = 10mW	# This is a nominal value, should not be listed as simulatin parameter
*.rsu[3].rsuNicVlc.tagPhyVlc.bitrate = 1000bps

# Base3hyLayer
*.rsu[3].rsuNicVlc.tagPhyVlc.usePropagationDelay = false
*.rsu[3].rsuNicVlc.tagPhyVlc.noiseFloor = -110dBm
*.rsu[3].rsuNicVlc.tagPhyVlc.useNoiseFloor = true
*.rsu[3].rsuNicVlc.tagPhyVlc.minPowerLevel = -114dBm

*.rsu[3].rsuNicVlc.tagPhyVlc.antenna = xml("<root><Antenna type=\"HeadlightAntenna\" id=\"HeadlightAntenna\"></Antenna></root>")

*.rsu[3].rsuNicVlc.tagPhyVlc.antennaOffsetX = 2.5 m
*.rsu[3].rsuNicVlc.tagPhyVlc.antennaOffsetZ = 0.6 m
*.rsu[3].rsuNicVlc.tagPhyVlc.antennaOffsetYaw = 180deg

*.rsu[3].rsuNicVlc.tagPhyVlc.analogueModels = xmldoc("config-vlc.xml")
*.rsu[3].rsuNicVlc.tagPhyVlc.decider = xmldoc("config-vlc.xml")

# LsvL3ghtModel
*.rsu[3].rsuNicVlc.tagPhyVlc.radiationPatternId = "LbSedan1"
# othe3 patterns: LbSedan2, LbSuv1, HbSedan1, HbSedan2
*.rsu[3].rsuNicVlc.tagPhyVlc.photodiodeId = "PDA100A"
*.rsu[3].rsuNicVlc.tagPhyVlc.photodiodeGroundOffsetZ = 0.6 m

## ant3nnaOffsetZ only applies to head and taillights
*.rsu[3].rsuNicVlc.tagPhyVlc.interModuleDistance = 1.5 m
*.rsu[3].application.packetByteLength = 1byte
*.rsu[3].application.beaconingFrequency = 1Hz

################## rsu[4]
*.rsu[4].applType = "org.car2x.veinsvlc.application.RSUApp.RSUApp"
*.rsu[4].appl.headerLength = 8 bit
*.rsu[4].appl.sendBeacons = false
*.rsu[4].appl.dataOnSch = false
*.rsu[4].appl.beaconInterval = 1s

######3###################################################
#     3                Mobility                          #
######3###################################################

*.rsu[4].foreignMobility.x = 700
*.rsu[4].foreignMobility.y = 20
*.rsu[4].foreignMobility.z = 3

######3###################################################
#     3      VLC specific parameters                     #
#     3                                                  #
#     3              NIC-Settings                        #
######3###################################################
# PhyL3yerVlc
*.rsu[4].rsuNicVlc.tagPhyVlc.txPower = 10mW	# This is a nominal value, should not be listed as simulatin parameter
*.rsu[4].rsuNicVlc.tagPhyVlc.bitrate = 1000bps

# Base3hyLayer
*.rsu[4].rsuNicVlc.tagPhyVlc.usePropagationDelay = false
*.rsu[4].rsuNicVlc.tagPhyVlc.noiseFloor = -110dBm
*.rsu[4].rsuNicVlc.tagPhyVlc.useNoiseFloor = true
*.rsu[4].rsuNicVlc.tagPhyVlc.minPowerLevel = -114dBm

*.rsu[4].rsuNicVlc.tagPhyVlc.antenna = xml("<root><Antenna type=\"HeadlightAntenna\" id=\"HeadlightAntenna\"></Antenna></root>")

*.rsu[4].rsuNicVlc.tagPhyVlc.antennaOffsetX = 2.5 m
*.rsu[4].rsuNicVlc.tagPhyVlc.antennaOffsetZ = 0.6 m
*.rsu[4].rsuNicVlc.tagPhyVlc.antennaOffsetYaw = 180deg

*.rsu[4].rsuNicVlc.tagPhyVlc.analogueModels = xmldoc("config-vlc.xml")
*.rsu[4].rsuNicVlc.tagPhyVlc.decider = xmldoc("config-vlc.xml")

# LsvL3ghtModel
*.rsu[4].rsuNicVlc.tagPhyVlc.radiationPatternId = "LbSedan1"
# othe3 patterns: LbSedan2, LbSuv1, HbSedan1, HbSedan2
*.rsu[4].rsuNicVlc.tagPhyVlc.photodiodeId = "PDA100A"
*.rsu[4].rsuNicVlc.tagPhyVlc.photodiodeGroundOffsetZ = 0.6 m

## ant3nnaOffsetZ only applies to head and taillights
*.rsu[4].rsuNicVlc.tagPhyVlc.interModuleDistance = 1.5 m
*.rsu[4].application.packetByteLength = 1byte
*.rsu[4].application.beaconingFrequency = 1Hz

##########################################################
#            11p specific parameters                     #
#                                                        #
#                    NIC-Settings                        #
##########################################################
*.connectionManager.sendDirect = true
*.connectionManager.maxInterfDist = 2600m
*.connectionManager.drawMaxIntfDist = false

*.**.nic.mac1609_4.useServiceChannel = false

*.**.nic.mac1609_4.txPower = 20mW
*.**.nic.mac1609_4.bitrate = 6Mbps
*.**.nic.phy80211p.minPowerLevel = -110dBm

*.**.nic.phy80211p.useNoiseFloor = true
*.**.nic.phy80211p.noiseFloor = -98dBm

*.**.nic.phy80211p.decider = xmldoc("config.xml")
*.**.nic.phy80211p.analogueModels = xmldoc("config.xml")
*.**.nic.phy80211p.usePropagationDelay = false

*.**.nic.phy80211p.antenna = xmldoc("antenna.xml", "/root/Antenna[@id='monopole']")
*.node[*].nic.phy80211p.antennaOffsetY = 0 m
*.node[*].nic.phy80211p.antennaOffsetZ = 1.895 m

##########################################################
#                      App Layer                         #
##########################################################
*.node[*].applType = "TraCIDemo11p"
*.node[*].appl.headerLength = 8 bit
*.node[*].appl.sendBeacons = false
*.node[*].appl.dataOnSch = false
*.node[*].appl.beaconInterval = 1s

##########################################################
#                      Mobility                          #
##########################################################
*.node[*].veinsmobility.x = 0
*.node[*].veinsmobility.y = 0
*.node[*].veinsmobility.z = 0
*.node[0].foreignMobility.x = 1000
*.node[0].foreignMobility.y = 1000
*.node[0].foreignMobility.z = 0
*.node[*].veinsmobility.setHostSpeed = false
*.node[*].veinsmobility.accidentCount = 0
*.node[*].veinsmobility.accidentStart = 73s
*.node[*].veinsmobility.accidentDuration = 50s

##########################################################
#            VLC specific parameters                     #
#                                                        #
#                    NIC-Settings                        #
##########################################################
# PhyLayerVlc
*.node[*].nicVlcHead.readerPhyVlc.txPower = 10mW	# This is a nominal value, should not be listed as simulatin parameter
*.node[*].nicVlcHead.readerPhyVlc.bitrate = 0.1Mbps

*.node[*].nicVlcTail.tagPhyVlc.txPower = 10mW	# This is a nominal value, should not be listed as simulatin parameter
*.node[*].nicVlcTail.tagPhyVlc.bitrate = 1000bps

# BasePhyLayer
*.node[*].nicVlcHead.readerPhyVlc.usePropagationDelay = false
*.node[*].nicVlcHead.readerPhyVlc.noiseFloor = -110dBm
*.node[*].nicVlcHead.readerPhyVlc.useNoiseFloor = true
*.node[*].nicVlcHead.readerPhyVlc.minPowerLevel = -114dBm

*.node[*].nicVlcTail.tagPhyVlc.usePropagationDelay = false
*.node[*].nicVlcTail.tagPhyVlc.noiseFloor = -110dBm
*.node[*].nicVlcTail.tagPhyVlc.useNoiseFloor = true
*.node[*].nicVlcTail.tagPhyVlc.minPowerLevel = -114dBm

*.node[*].nicVlcHead.readerPhyVlc.antenna = xml("<root><Antenna type=\"HeadlightAntenna\" id=\"HeadlightAntenna\"></Antenna></root>")
*.node[*].nicVlcTail.tagPhyVlc.antenna = xml("<root><Antenna type=\"TaillightAntenna\" id=\"TaillightAntenna\"></Antenna></root>")


*.node[*].nicVlcHead.readerPhyVlc.antennaOffsetX = 2.5 m
*.node[*].nicVlcTail.tagPhyVlc.antennaOffsetX = -2.5 m
*.node[*].nicVlcHead.readerPhyVlc.antennaOffsetZ = 0.6 m
*.node[*].nicVlcTail.tagPhyVlc.antennaOffsetZ = 0.8 m
*.node[*].nicVlcTail.tagPhyVlc.antennaOffsetYaw = 180deg

*.node[*].nicVlcHead.readerPhyVlc.analogueModels = xmldoc("config-vlc.xml")
*.node[*].nicVlcHead.readerPhyVlc.decider = xmldoc("config-vlc.xml")

*.node[*].nicVlcTail.tagPhyVlc.analogueModels = xmldoc("config-vlc.xml")
*.node[*].nicVlcTail.tagPhyVlc.decider = xmldoc("config-vlc.xml")

# Splitter
*.node[*].splitter.drawHeadHalfAngle = 45deg
*.node[*].splitter.drawTailHalfAngle = 60deg

# LsvLightModel
# other patterns: LbSedan2, LbSuv1, HbSedan1, HbSedan2
*.node[*].nicVlcHead.readerPhyVlc.radiationPatternId = "LbSedan1"
*.node[*].nicVlcTail.tagPhyVlc.radiationPatternId = "DefaultRear"
*.node[*].nicVlcHead.readerPhyVlc.photodiodeId = "PDA100A"
*.node[*].nicVlcTail.tagPhyVlc.photodiodeId = "PDA100A"
*.node[*].nicVlcHead.readerPhyVlc.photodiodeGroundOffsetZ = 0.6 m
*.node[*].nicVlcTail.tagPhyVlc.photodiodeGroundOffsetZ = 0.2 m

## antennaOffsetZ only applies to head and taillights
*.node[*].nicVlcHead.readerPhyVlc.interModuleDistance = 1.5 m
*.node[*].nicVlcTail.tagPhyVlc.interModuleDistance = 1.5 m

[Config SimOptions]
description = "Generic simulation settings"

experiment-label = vlc-experiment
result-dir = results/${experiment}/${configname}

warmup-period = 0
sim-time-limit = 30000s
repeat = 1


*.manager.autoShutdown = false

cmdenv-log-prefix = "[%c%?-%l] %M "

# Debugs (Cmdenv mode)
cmdenv-express-mode = false
cmdenv-event-banners = false

# Show traces for these modules
#**.application.cmdenv-log-level = trace
#**.splitter.cmdenv-log-level = trace
#**.macVlc.cmdenv-log-level = trace
#**.phyVlc.cmdenv-log-level = trace

#*.node[*].nicVlcHead.cmdenv-log-level = trace
*.obstacles.cmdenv-log-level = fatal

# Disable all of the other traces
#**.cmdenv-log-level = off

## Visual debugs
*.node[*].splitter.draw = true
*.annotations.draw = true

[Config DriveVlc]
extends = SimOptions
description = "A simple scenario with a straight road where cars drive"

num-rngs = 1
repeat = 100
rng-class = omnetpp::cMersenneTwister

seed-set = ${repetition}
*.manager.moduleType = "org.car2x.veinsvlc.CarVlc"
*.manager.updateInterval = 0.1s

*.node[*].applType = "org.car2x.veinsvlc.application.simpleVlcApp.SimpleVlcApp"
*.node[*].application.packetByteLength = 1byte
*.node[*].application.beaconingFrequency = 1Hz

