[General]

#num-rngs = 3
#**.gen[*].rng-0 = 1
#**.noisychannel[*].rng-0 = 2

#seed-0-mt = 560
#seed-1-mt = 230
#seed-2-mt = 340

cmdenv-express-mode = true
cmdenv-autoflush = true
cmdenv-status-frequency = 1s
**.cmdenv-log-level = warn
cmdenv-redirect-output = true


ned-path = .
image-path = ../../images

network = VLCExampleScenario

##########################################################
#            Simulation parameters                       #
##########################################################
debug-on-errors = true
print-undisposed = true

sim-time-limit = 250s

**.scalar-recording = true
**.vector-recording = true

*.playgroundSizeX = 5000m
*.playgroundSizeY = 2500m
*.playgroundSizeZ = 50m


##########################################################
# Annotation parameters                                  #
##########################################################
*.annotations.draw = true

##########################################################
# Obstacle parameters                                    #
##########################################################
*.obstacles.obstacles = xmldoc("config.xml", "//AnalogueModel[@type='SimpleObstacleShadowing']/obstacles")

##########################################################
#            TraCIScenarioManager parameters             #
##########################################################
*.manager.updateInterval = 1s
*.manager.host = "localhost"
*.manager.port = 9999
*.manager.autoShutdown = true
*.manager.launchConfig = xmldoc("vlc.launchd.xml")

##########################################################
#                       RSU SETTINGS                     #
#                                                        #
#                                                        #
##########################################################
#rsu_begin
####rsu[0] setting
*.rsu[0].applType = "org.car2x.veinsvlc.application.RSUApp.RSUApp"
*.rsu[0].appl.headerLength = 8 bit
*.rsu[0].appl.sendBeacons = false
*.rsu[0].appl.dataOnSch = false
*.rsu[0].appl.beaconInterval = 1s

*.rsu[0].foreignMobility.x = 250
*.rsu[0].foreignMobility.y = 12.25
*.rsu[0].foreignMobility.z = 3

# PhyLayerVlc
*.rsu[0].rsuNicVlc.tagPhyVlc.txPower = 10mW	# This is a nominal value, should not be listed as simulatin parameter
*.rsu[0].rsuNicVlc.tagPhyVlc.bitrate = 1000bps

# Base0hyLayer
*.rsu[0].rsuNicVlc.tagPhyVlc.usePropagationDelay = false
*.rsu[0].rsuNicVlc.tagPhyVlc.noiseFloor = -110dBm
*.rsu[0].rsuNicVlc.tagPhyVlc.useNoiseFloor = true
*.rsu[0].rsuNicVlc.tagPhyVlc.minPowerLevel = -114dBm

*.rsu[0].rsuNicVlc.tagPhyVlc.antenna = xml("<root><Antenna type=\"HeadlightAntenna\" id=\"HeadlightAntenna\"></Antenna></root>")

*.rsu[0].rsuNicVlc.tagPhyVlc.antennaOffsetX = 2.5 m
*.rsu[0].rsuNicVlc.tagPhyVlc.antennaOffsetZ = 0.6 m
*.rsu[0].rsuNicVlc.tagPhyVlc.antennaOffsetYaw = 180deg


*.rsu[0].rsuNicVlc.tagPhyVlc.analogueModels = xmldoc("config-vlc.xml")
*.rsu[0].rsuNicVlc.tagPhyVlc.decider = xmldoc("config-vlc.xml")

# LsvL0ghtModel
*.rsu[0].rsuNicVlc.tagPhyVlc.radiationPatternId = "LbSedan1"
# othe0 patterns: LbSedan2, LbSuv1, HbSedan1, HbSedan2
*.rsu[0].rsuNicVlc.tagPhyVlc.photodiodeId = "PDA100A"
*.rsu[0].rsuNicVlc.tagPhyVlc.photodiodeGroundOffsetZ = 0.6 m

## ant0nnaOffsetZ only applies to head and taillights
*.rsu[0].rsuNicVlc.tagPhyVlc.interModuleDistance = 1.5 m
*.rsu[0].application.packetByteLength = 1byte
*.rsu[0].application.beaconingFrequency = 1Hz

####rsu[1] setting
*.rsu[1].applType = "org.car2x.veinsvlc.application.RSUApp.RSUApp"
*.rsu[1].appl.headerLength = 8 bit
*.rsu[1].appl.sendBeacons = false
*.rsu[1].appl.dataOnSch = false
*.rsu[1].appl.beaconInterval = 1s

*.rsu[1].foreignMobility.x = 450
*.rsu[1].foreignMobility.y = 12.25
*.rsu[1].foreignMobility.z = 3

# PhyLayerVlc
*.rsu[1].rsuNicVlc.tagPhyVlc.txPower = 10mW	# This is a nominal value, should not be listed as simulatin parameter
*.rsu[1].rsuNicVlc.tagPhyVlc.bitrate = 1000bps

# Base0hyLayer
*.rsu[1].rsuNicVlc.tagPhyVlc.usePropagationDelay = false
*.rsu[1].rsuNicVlc.tagPhyVlc.noiseFloor = -110dBm
*.rsu[1].rsuNicVlc.tagPhyVlc.useNoiseFloor = true
*.rsu[1].rsuNicVlc.tagPhyVlc.minPowerLevel = -114dBm

*.rsu[1].rsuNicVlc.tagPhyVlc.antenna = xml("<root><Antenna type=\"HeadlightAntenna\" id=\"HeadlightAntenna\"></Antenna></root>")

*.rsu[1].rsuNicVlc.tagPhyVlc.antennaOffsetX = 2.5 m
*.rsu[1].rsuNicVlc.tagPhyVlc.antennaOffsetZ = 0.6 m
*.rsu[1].rsuNicVlc.tagPhyVlc.antennaOffsetYaw = 180deg


*.rsu[1].rsuNicVlc.tagPhyVlc.analogueModels = xmldoc("config-vlc.xml")
*.rsu[1].rsuNicVlc.tagPhyVlc.decider = xmldoc("config-vlc.xml")

# LsvL0ghtModel
*.rsu[1].rsuNicVlc.tagPhyVlc.radiationPatternId = "LbSedan1"
# othe0 patterns: LbSedan2, LbSuv1, HbSedan1, HbSedan2
*.rsu[1].rsuNicVlc.tagPhyVlc.photodiodeId = "PDA100A"
*.rsu[1].rsuNicVlc.tagPhyVlc.photodiodeGroundOffsetZ = 0.6 m

## ant0nnaOffsetZ only applies to head and taillights
*.rsu[1].rsuNicVlc.tagPhyVlc.interModuleDistance = 1.5 m
*.rsu[1].application.packetByteLength = 1byte
*.rsu[1].application.beaconingFrequency = 1Hz

####rsu[2] setting
*.rsu[2].applType = "org.car2x.veinsvlc.application.RSUApp.RSUApp"
*.rsu[2].appl.headerLength = 8 bit
*.rsu[2].appl.sendBeacons = false
*.rsu[2].appl.dataOnSch = false
*.rsu[2].appl.beaconInterval = 1s

*.rsu[2].foreignMobility.x = 650
*.rsu[2].foreignMobility.y = 12.25
*.rsu[2].foreignMobility.z = 3

# PhyLayerVlc
*.rsu[2].rsuNicVlc.tagPhyVlc.txPower = 10mW	# This is a nominal value, should not be listed as simulatin parameter
*.rsu[2].rsuNicVlc.tagPhyVlc.bitrate = 1000bps

# Base0hyLayer
*.rsu[2].rsuNicVlc.tagPhyVlc.usePropagationDelay = false
*.rsu[2].rsuNicVlc.tagPhyVlc.noiseFloor = -110dBm
*.rsu[2].rsuNicVlc.tagPhyVlc.useNoiseFloor = true
*.rsu[2].rsuNicVlc.tagPhyVlc.minPowerLevel = -114dBm

*.rsu[2].rsuNicVlc.tagPhyVlc.antenna = xml("<root><Antenna type=\"HeadlightAntenna\" id=\"HeadlightAntenna\"></Antenna></root>")

*.rsu[2].rsuNicVlc.tagPhyVlc.antennaOffsetX = 2.5 m
*.rsu[2].rsuNicVlc.tagPhyVlc.antennaOffsetZ = 0.6 m
*.rsu[2].rsuNicVlc.tagPhyVlc.antennaOffsetYaw = 180deg


*.rsu[2].rsuNicVlc.tagPhyVlc.analogueModels = xmldoc("config-vlc.xml")
*.rsu[2].rsuNicVlc.tagPhyVlc.decider = xmldoc("config-vlc.xml")

# LsvL0ghtModel
*.rsu[2].rsuNicVlc.tagPhyVlc.radiationPatternId = "LbSedan1"
# othe0 patterns: LbSedan2, LbSuv1, HbSedan1, HbSedan2
*.rsu[2].rsuNicVlc.tagPhyVlc.photodiodeId = "PDA100A"
*.rsu[2].rsuNicVlc.tagPhyVlc.photodiodeGroundOffsetZ = 0.6 m

## ant0nnaOffsetZ only applies to head and taillights
*.rsu[2].rsuNicVlc.tagPhyVlc.interModuleDistance = 1.5 m
*.rsu[2].application.packetByteLength = 1byte
*.rsu[2].application.beaconingFrequency = 1Hz

####rsu[3] setting
*.rsu[3].applType = "org.car2x.veinsvlc.application.RSUApp.RSUApp"
*.rsu[3].appl.headerLength = 8 bit
*.rsu[3].appl.sendBeacons = false
*.rsu[3].appl.dataOnSch = false
*.rsu[3].appl.beaconInterval = 1s

*.rsu[3].foreignMobility.x = 850
*.rsu[3].foreignMobility.y = 12.25
*.rsu[3].foreignMobility.z = 3

# PhyLayerVlc
*.rsu[3].rsuNicVlc.tagPhyVlc.txPower = 10mW	# This is a nominal value, should not be listed as simulatin parameter
*.rsu[3].rsuNicVlc.tagPhyVlc.bitrate = 1000bps

# Base0hyLayer
*.rsu[3].rsuNicVlc.tagPhyVlc.usePropagationDelay = false
*.rsu[3].rsuNicVlc.tagPhyVlc.noiseFloor = -110dBm
*.rsu[3].rsuNicVlc.tagPhyVlc.useNoiseFloor = true
*.rsu[3].rsuNicVlc.tagPhyVlc.minPowerLevel = -114dBm

*.rsu[3].rsuNicVlc.tagPhyVlc.antenna = xml("<root><Antenna type=\"HeadlightAntenna\" id=\"HeadlightAntenna\"></Antenna></root>")

*.rsu[3].rsuNicVlc.tagPhyVlc.antennaOffsetX = 2.5 m
*.rsu[3].rsuNicVlc.tagPhyVlc.antennaOffsetZ = 0.6 m
*.rsu[3].rsuNicVlc.tagPhyVlc.antennaOffsetYaw = 180deg


*.rsu[3].rsuNicVlc.tagPhyVlc.analogueModels = xmldoc("config-vlc.xml")
*.rsu[3].rsuNicVlc.tagPhyVlc.decider = xmldoc("config-vlc.xml")

# LsvL0ghtModel
*.rsu[3].rsuNicVlc.tagPhyVlc.radiationPatternId = "LbSedan1"
# othe0 patterns: LbSedan2, LbSuv1, HbSedan1, HbSedan2
*.rsu[3].rsuNicVlc.tagPhyVlc.photodiodeId = "PDA100A"
*.rsu[3].rsuNicVlc.tagPhyVlc.photodiodeGroundOffsetZ = 0.6 m

## ant0nnaOffsetZ only applies to head and taillights
*.rsu[3].rsuNicVlc.tagPhyVlc.interModuleDistance = 1.5 m
*.rsu[3].application.packetByteLength = 1byte
*.rsu[3].application.beaconingFrequency = 1Hz

####rsu[4] setting
*.rsu[4].applType = "org.car2x.veinsvlc.application.RSUApp.RSUApp"
*.rsu[4].appl.headerLength = 8 bit
*.rsu[4].appl.sendBeacons = false
*.rsu[4].appl.dataOnSch = false
*.rsu[4].appl.beaconInterval = 1s

*.rsu[4].foreignMobility.x = 1050
*.rsu[4].foreignMobility.y = 12.25
*.rsu[4].foreignMobility.z = 3

# PhyLayerVlc
*.rsu[4].rsuNicVlc.tagPhyVlc.txPower = 10mW	# This is a nominal value, should not be listed as simulatin parameter
*.rsu[4].rsuNicVlc.tagPhyVlc.bitrate = 1000bps

# Base0hyLayer
*.rsu[4].rsuNicVlc.tagPhyVlc.usePropagationDelay = false
*.rsu[4].rsuNicVlc.tagPhyVlc.noiseFloor = -110dBm
*.rsu[4].rsuNicVlc.tagPhyVlc.useNoiseFloor = true
*.rsu[4].rsuNicVlc.tagPhyVlc.minPowerLevel = -114dBm

*.rsu[4].rsuNicVlc.tagPhyVlc.antenna = xml("<root><Antenna type=\"HeadlightAntenna\" id=\"HeadlightAntenna\"></Antenna></root>")

*.rsu[4].rsuNicVlc.tagPhyVlc.antennaOffsetX = 2.5 m
*.rsu[4].rsuNicVlc.tagPhyVlc.antennaOffsetZ = 0.6 m
*.rsu[4].rsuNicVlc.tagPhyVlc.antennaOffsetYaw = 180deg


*.rsu[4].rsuNicVlc.tagPhyVlc.analogueModels = xmldoc("config-vlc.xml")
*.rsu[4].rsuNicVlc.tagPhyVlc.decider = xmldoc("config-vlc.xml")

# LsvL0ghtModel
*.rsu[4].rsuNicVlc.tagPhyVlc.radiationPatternId = "LbSedan1"
# othe0 patterns: LbSedan2, LbSuv1, HbSedan1, HbSedan2
*.rsu[4].rsuNicVlc.tagPhyVlc.photodiodeId = "PDA100A"
*.rsu[4].rsuNicVlc.tagPhyVlc.photodiodeGroundOffsetZ = 0.6 m

## ant0nnaOffsetZ only applies to head and taillights
*.rsu[4].rsuNicVlc.tagPhyVlc.interModuleDistance = 1.5 m
*.rsu[4].application.packetByteLength = 1byte
*.rsu[4].application.beaconingFrequency = 1Hz

####rsu[5] setting
*.rsu[5].applType = "org.car2x.veinsvlc.application.RSUApp.RSUApp"
*.rsu[5].appl.headerLength = 8 bit
*.rsu[5].appl.sendBeacons = false
*.rsu[5].appl.dataOnSch = false
*.rsu[5].appl.beaconInterval = 1s

*.rsu[5].foreignMobility.x = 1250
*.rsu[5].foreignMobility.y = 12.25
*.rsu[5].foreignMobility.z = 3

# PhyLayerVlc
*.rsu[5].rsuNicVlc.tagPhyVlc.txPower = 10mW	# This is a nominal value, should not be listed as simulatin parameter
*.rsu[5].rsuNicVlc.tagPhyVlc.bitrate = 1000bps

# Base0hyLayer
*.rsu[5].rsuNicVlc.tagPhyVlc.usePropagationDelay = false
*.rsu[5].rsuNicVlc.tagPhyVlc.noiseFloor = -110dBm
*.rsu[5].rsuNicVlc.tagPhyVlc.useNoiseFloor = true
*.rsu[5].rsuNicVlc.tagPhyVlc.minPowerLevel = -114dBm

*.rsu[5].rsuNicVlc.tagPhyVlc.antenna = xml("<root><Antenna type=\"HeadlightAntenna\" id=\"HeadlightAntenna\"></Antenna></root>")

*.rsu[5].rsuNicVlc.tagPhyVlc.antennaOffsetX = 2.5 m
*.rsu[5].rsuNicVlc.tagPhyVlc.antennaOffsetZ = 0.6 m
*.rsu[5].rsuNicVlc.tagPhyVlc.antennaOffsetYaw = 180deg


*.rsu[5].rsuNicVlc.tagPhyVlc.analogueModels = xmldoc("config-vlc.xml")
*.rsu[5].rsuNicVlc.tagPhyVlc.decider = xmldoc("config-vlc.xml")

# LsvL0ghtModel
*.rsu[5].rsuNicVlc.tagPhyVlc.radiationPatternId = "LbSedan1"
# othe0 patterns: LbSedan2, LbSuv1, HbSedan1, HbSedan2
*.rsu[5].rsuNicVlc.tagPhyVlc.photodiodeId = "PDA100A"
*.rsu[5].rsuNicVlc.tagPhyVlc.photodiodeGroundOffsetZ = 0.6 m

## ant0nnaOffsetZ only applies to head and taillights
*.rsu[5].rsuNicVlc.tagPhyVlc.interModuleDistance = 1.5 m
*.rsu[5].application.packetByteLength = 1byte
*.rsu[5].application.beaconingFrequency = 1Hz

####rsu[6] setting
*.rsu[6].applType = "org.car2x.veinsvlc.application.RSUApp.RSUApp"
*.rsu[6].appl.headerLength = 8 bit
*.rsu[6].appl.sendBeacons = false
*.rsu[6].appl.dataOnSch = false
*.rsu[6].appl.beaconInterval = 1s

*.rsu[6].foreignMobility.x = 1450
*.rsu[6].foreignMobility.y = 12.25
*.rsu[6].foreignMobility.z = 3

# PhyLayerVlc
*.rsu[6].rsuNicVlc.tagPhyVlc.txPower = 10mW	# This is a nominal value, should not be listed as simulatin parameter
*.rsu[6].rsuNicVlc.tagPhyVlc.bitrate = 1000bps

# Base0hyLayer
*.rsu[6].rsuNicVlc.tagPhyVlc.usePropagationDelay = false
*.rsu[6].rsuNicVlc.tagPhyVlc.noiseFloor = -110dBm
*.rsu[6].rsuNicVlc.tagPhyVlc.useNoiseFloor = true
*.rsu[6].rsuNicVlc.tagPhyVlc.minPowerLevel = -114dBm

*.rsu[6].rsuNicVlc.tagPhyVlc.antenna = xml("<root><Antenna type=\"HeadlightAntenna\" id=\"HeadlightAntenna\"></Antenna></root>")

*.rsu[6].rsuNicVlc.tagPhyVlc.antennaOffsetX = 2.5 m
*.rsu[6].rsuNicVlc.tagPhyVlc.antennaOffsetZ = 0.6 m
*.rsu[6].rsuNicVlc.tagPhyVlc.antennaOffsetYaw = 180deg


*.rsu[6].rsuNicVlc.tagPhyVlc.analogueModels = xmldoc("config-vlc.xml")
*.rsu[6].rsuNicVlc.tagPhyVlc.decider = xmldoc("config-vlc.xml")

# LsvL0ghtModel
*.rsu[6].rsuNicVlc.tagPhyVlc.radiationPatternId = "LbSedan1"
# othe0 patterns: LbSedan2, LbSuv1, HbSedan1, HbSedan2
*.rsu[6].rsuNicVlc.tagPhyVlc.photodiodeId = "PDA100A"
*.rsu[6].rsuNicVlc.tagPhyVlc.photodiodeGroundOffsetZ = 0.6 m

## ant0nnaOffsetZ only applies to head and taillights
*.rsu[6].rsuNicVlc.tagPhyVlc.interModuleDistance = 1.5 m
*.rsu[6].application.packetByteLength = 1byte
*.rsu[6].application.beaconingFrequency = 1Hz

####rsu[7] setting
*.rsu[7].applType = "org.car2x.veinsvlc.application.RSUApp.RSUApp"
*.rsu[7].appl.headerLength = 8 bit
*.rsu[7].appl.sendBeacons = false
*.rsu[7].appl.dataOnSch = false
*.rsu[7].appl.beaconInterval = 1s

*.rsu[7].foreignMobility.x = 1650
*.rsu[7].foreignMobility.y = 12.25
*.rsu[7].foreignMobility.z = 3

# PhyLayerVlc
*.rsu[7].rsuNicVlc.tagPhyVlc.txPower = 10mW	# This is a nominal value, should not be listed as simulatin parameter
*.rsu[7].rsuNicVlc.tagPhyVlc.bitrate = 1000bps

# Base0hyLayer
*.rsu[7].rsuNicVlc.tagPhyVlc.usePropagationDelay = false
*.rsu[7].rsuNicVlc.tagPhyVlc.noiseFloor = -110dBm
*.rsu[7].rsuNicVlc.tagPhyVlc.useNoiseFloor = true
*.rsu[7].rsuNicVlc.tagPhyVlc.minPowerLevel = -114dBm

*.rsu[7].rsuNicVlc.tagPhyVlc.antenna = xml("<root><Antenna type=\"HeadlightAntenna\" id=\"HeadlightAntenna\"></Antenna></root>")

*.rsu[7].rsuNicVlc.tagPhyVlc.antennaOffsetX = 2.5 m
*.rsu[7].rsuNicVlc.tagPhyVlc.antennaOffsetZ = 0.6 m
*.rsu[7].rsuNicVlc.tagPhyVlc.antennaOffsetYaw = 180deg


*.rsu[7].rsuNicVlc.tagPhyVlc.analogueModels = xmldoc("config-vlc.xml")
*.rsu[7].rsuNicVlc.tagPhyVlc.decider = xmldoc("config-vlc.xml")

# LsvL0ghtModel
*.rsu[7].rsuNicVlc.tagPhyVlc.radiationPatternId = "LbSedan1"
# othe0 patterns: LbSedan2, LbSuv1, HbSedan1, HbSedan2
*.rsu[7].rsuNicVlc.tagPhyVlc.photodiodeId = "PDA100A"
*.rsu[7].rsuNicVlc.tagPhyVlc.photodiodeGroundOffsetZ = 0.6 m

## ant0nnaOffsetZ only applies to head and taillights
*.rsu[7].rsuNicVlc.tagPhyVlc.interModuleDistance = 1.5 m
*.rsu[7].application.packetByteLength = 1byte
*.rsu[7].application.beaconingFrequency = 1Hz

####rsu[8] setting
*.rsu[8].applType = "org.car2x.veinsvlc.application.RSUApp.RSUApp"
*.rsu[8].appl.headerLength = 8 bit
*.rsu[8].appl.sendBeacons = false
*.rsu[8].appl.dataOnSch = false
*.rsu[8].appl.beaconInterval = 1s

*.rsu[8].foreignMobility.x = 1850
*.rsu[8].foreignMobility.y = 12.25
*.rsu[8].foreignMobility.z = 3

# PhyLayerVlc
*.rsu[8].rsuNicVlc.tagPhyVlc.txPower = 10mW	# This is a nominal value, should not be listed as simulatin parameter
*.rsu[8].rsuNicVlc.tagPhyVlc.bitrate = 1000bps

# Base0hyLayer
*.rsu[8].rsuNicVlc.tagPhyVlc.usePropagationDelay = false
*.rsu[8].rsuNicVlc.tagPhyVlc.noiseFloor = -110dBm
*.rsu[8].rsuNicVlc.tagPhyVlc.useNoiseFloor = true
*.rsu[8].rsuNicVlc.tagPhyVlc.minPowerLevel = -114dBm

*.rsu[8].rsuNicVlc.tagPhyVlc.antenna = xml("<root><Antenna type=\"HeadlightAntenna\" id=\"HeadlightAntenna\"></Antenna></root>")

*.rsu[8].rsuNicVlc.tagPhyVlc.antennaOffsetX = 2.5 m
*.rsu[8].rsuNicVlc.tagPhyVlc.antennaOffsetZ = 0.6 m
*.rsu[8].rsuNicVlc.tagPhyVlc.antennaOffsetYaw = 180deg


*.rsu[8].rsuNicVlc.tagPhyVlc.analogueModels = xmldoc("config-vlc.xml")
*.rsu[8].rsuNicVlc.tagPhyVlc.decider = xmldoc("config-vlc.xml")

# LsvL0ghtModel
*.rsu[8].rsuNicVlc.tagPhyVlc.radiationPatternId = "LbSedan1"
# othe0 patterns: LbSedan2, LbSuv1, HbSedan1, HbSedan2
*.rsu[8].rsuNicVlc.tagPhyVlc.photodiodeId = "PDA100A"
*.rsu[8].rsuNicVlc.tagPhyVlc.photodiodeGroundOffsetZ = 0.6 m

## ant0nnaOffsetZ only applies to head and taillights
*.rsu[8].rsuNicVlc.tagPhyVlc.interModuleDistance = 1.5 m
*.rsu[8].application.packetByteLength = 1byte
*.rsu[8].application.beaconingFrequency = 1Hz

####rsu[9] setting
*.rsu[9].applType = "org.car2x.veinsvlc.application.RSUApp.RSUApp"
*.rsu[9].appl.headerLength = 8 bit
*.rsu[9].appl.sendBeacons = false
*.rsu[9].appl.dataOnSch = false
*.rsu[9].appl.beaconInterval = 1s

*.rsu[9].foreignMobility.x = 2050
*.rsu[9].foreignMobility.y = 12.25
*.rsu[9].foreignMobility.z = 3

# PhyLayerVlc
*.rsu[9].rsuNicVlc.tagPhyVlc.txPower = 10mW	# This is a nominal value, should not be listed as simulatin parameter
*.rsu[9].rsuNicVlc.tagPhyVlc.bitrate = 1000bps

# Base0hyLayer
*.rsu[9].rsuNicVlc.tagPhyVlc.usePropagationDelay = false
*.rsu[9].rsuNicVlc.tagPhyVlc.noiseFloor = -110dBm
*.rsu[9].rsuNicVlc.tagPhyVlc.useNoiseFloor = true
*.rsu[9].rsuNicVlc.tagPhyVlc.minPowerLevel = -114dBm

*.rsu[9].rsuNicVlc.tagPhyVlc.antenna = xml("<root><Antenna type=\"HeadlightAntenna\" id=\"HeadlightAntenna\"></Antenna></root>")

*.rsu[9].rsuNicVlc.tagPhyVlc.antennaOffsetX = 2.5 m
*.rsu[9].rsuNicVlc.tagPhyVlc.antennaOffsetZ = 0.6 m
*.rsu[9].rsuNicVlc.tagPhyVlc.antennaOffsetYaw = 180deg


*.rsu[9].rsuNicVlc.tagPhyVlc.analogueModels = xmldoc("config-vlc.xml")
*.rsu[9].rsuNicVlc.tagPhyVlc.decider = xmldoc("config-vlc.xml")

# LsvL0ghtModel
*.rsu[9].rsuNicVlc.tagPhyVlc.radiationPatternId = "LbSedan1"
# othe0 patterns: LbSedan2, LbSuv1, HbSedan1, HbSedan2
*.rsu[9].rsuNicVlc.tagPhyVlc.photodiodeId = "PDA100A"
*.rsu[9].rsuNicVlc.tagPhyVlc.photodiodeGroundOffsetZ = 0.6 m

## ant0nnaOffsetZ only applies to head and taillights
*.rsu[9].rsuNicVlc.tagPhyVlc.interModuleDistance = 1.5 m
*.rsu[9].application.packetByteLength = 1byte
*.rsu[9].application.beaconingFrequency = 1Hz

####rsu[10] setting
*.rsu[10].applType = "org.car2x.veinsvlc.application.RSUApp.RSUApp"
*.rsu[10].appl.headerLength = 8 bit
*.rsu[10].appl.sendBeacons = false
*.rsu[10].appl.dataOnSch = false
*.rsu[10].appl.beaconInterval = 1s

*.rsu[10].foreignMobility.x = 2250
*.rsu[10].foreignMobility.y = 12.25
*.rsu[10].foreignMobility.z = 3

# PhyLayerVlc
*.rsu[10].rsuNicVlc.tagPhyVlc.txPower = 10mW	# This is a nominal value, should not be listed as simulatin parameter
*.rsu[10].rsuNicVlc.tagPhyVlc.bitrate = 1000bps

# Base0hyLayer
*.rsu[10].rsuNicVlc.tagPhyVlc.usePropagationDelay = false
*.rsu[10].rsuNicVlc.tagPhyVlc.noiseFloor = -110dBm
*.rsu[10].rsuNicVlc.tagPhyVlc.useNoiseFloor = true
*.rsu[10].rsuNicVlc.tagPhyVlc.minPowerLevel = -114dBm

*.rsu[10].rsuNicVlc.tagPhyVlc.antenna = xml("<root><Antenna type=\"HeadlightAntenna\" id=\"HeadlightAntenna\"></Antenna></root>")

*.rsu[10].rsuNicVlc.tagPhyVlc.antennaOffsetX = 2.5 m
*.rsu[10].rsuNicVlc.tagPhyVlc.antennaOffsetZ = 0.6 m
*.rsu[10].rsuNicVlc.tagPhyVlc.antennaOffsetYaw = 180deg


*.rsu[10].rsuNicVlc.tagPhyVlc.analogueModels = xmldoc("config-vlc.xml")
*.rsu[10].rsuNicVlc.tagPhyVlc.decider = xmldoc("config-vlc.xml")

# LsvL0ghtModel
*.rsu[10].rsuNicVlc.tagPhyVlc.radiationPatternId = "LbSedan1"
# othe0 patterns: LbSedan2, LbSuv1, HbSedan1, HbSedan2
*.rsu[10].rsuNicVlc.tagPhyVlc.photodiodeId = "PDA100A"
*.rsu[10].rsuNicVlc.tagPhyVlc.photodiodeGroundOffsetZ = 0.6 m

## ant0nnaOffsetZ only applies to head and taillights
*.rsu[10].rsuNicVlc.tagPhyVlc.interModuleDistance = 1.5 m
*.rsu[10].application.packetByteLength = 1byte
*.rsu[10].application.beaconingFrequency = 1Hz

####rsu[11] setting
*.rsu[11].applType = "org.car2x.veinsvlc.application.RSUApp.RSUApp"
*.rsu[11].appl.headerLength = 8 bit
*.rsu[11].appl.sendBeacons = false
*.rsu[11].appl.dataOnSch = false
*.rsu[11].appl.beaconInterval = 1s

*.rsu[11].foreignMobility.x = 2450
*.rsu[11].foreignMobility.y = 12.25
*.rsu[11].foreignMobility.z = 3

# PhyLayerVlc
*.rsu[11].rsuNicVlc.tagPhyVlc.txPower = 10mW	# This is a nominal value, should not be listed as simulatin parameter
*.rsu[11].rsuNicVlc.tagPhyVlc.bitrate = 1000bps

# Base0hyLayer
*.rsu[11].rsuNicVlc.tagPhyVlc.usePropagationDelay = false
*.rsu[11].rsuNicVlc.tagPhyVlc.noiseFloor = -110dBm
*.rsu[11].rsuNicVlc.tagPhyVlc.useNoiseFloor = true
*.rsu[11].rsuNicVlc.tagPhyVlc.minPowerLevel = -114dBm

*.rsu[11].rsuNicVlc.tagPhyVlc.antenna = xml("<root><Antenna type=\"HeadlightAntenna\" id=\"HeadlightAntenna\"></Antenna></root>")

*.rsu[11].rsuNicVlc.tagPhyVlc.antennaOffsetX = 2.5 m
*.rsu[11].rsuNicVlc.tagPhyVlc.antennaOffsetZ = 0.6 m
*.rsu[11].rsuNicVlc.tagPhyVlc.antennaOffsetYaw = 180deg


*.rsu[11].rsuNicVlc.tagPhyVlc.analogueModels = xmldoc("config-vlc.xml")
*.rsu[11].rsuNicVlc.tagPhyVlc.decider = xmldoc("config-vlc.xml")

# LsvL0ghtModel
*.rsu[11].rsuNicVlc.tagPhyVlc.radiationPatternId = "LbSedan1"
# othe0 patterns: LbSedan2, LbSuv1, HbSedan1, HbSedan2
*.rsu[11].rsuNicVlc.tagPhyVlc.photodiodeId = "PDA100A"
*.rsu[11].rsuNicVlc.tagPhyVlc.photodiodeGroundOffsetZ = 0.6 m

## ant0nnaOffsetZ only applies to head and taillights
*.rsu[11].rsuNicVlc.tagPhyVlc.interModuleDistance = 1.5 m
*.rsu[11].application.packetByteLength = 1byte
*.rsu[11].application.beaconingFrequency = 1Hz

####rsu[12] setting
*.rsu[12].applType = "org.car2x.veinsvlc.application.RSUApp.RSUApp"
*.rsu[12].appl.headerLength = 8 bit
*.rsu[12].appl.sendBeacons = false
*.rsu[12].appl.dataOnSch = false
*.rsu[12].appl.beaconInterval = 1s

*.rsu[12].foreignMobility.x = 2650
*.rsu[12].foreignMobility.y = 12.25
*.rsu[12].foreignMobility.z = 3

# PhyLayerVlc
*.rsu[12].rsuNicVlc.tagPhyVlc.txPower = 10mW	# This is a nominal value, should not be listed as simulatin parameter
*.rsu[12].rsuNicVlc.tagPhyVlc.bitrate = 1000bps

# Base0hyLayer
*.rsu[12].rsuNicVlc.tagPhyVlc.usePropagationDelay = false
*.rsu[12].rsuNicVlc.tagPhyVlc.noiseFloor = -110dBm
*.rsu[12].rsuNicVlc.tagPhyVlc.useNoiseFloor = true
*.rsu[12].rsuNicVlc.tagPhyVlc.minPowerLevel = -114dBm

*.rsu[12].rsuNicVlc.tagPhyVlc.antenna = xml("<root><Antenna type=\"HeadlightAntenna\" id=\"HeadlightAntenna\"></Antenna></root>")

*.rsu[12].rsuNicVlc.tagPhyVlc.antennaOffsetX = 2.5 m
*.rsu[12].rsuNicVlc.tagPhyVlc.antennaOffsetZ = 0.6 m
*.rsu[12].rsuNicVlc.tagPhyVlc.antennaOffsetYaw = 180deg


*.rsu[12].rsuNicVlc.tagPhyVlc.analogueModels = xmldoc("config-vlc.xml")
*.rsu[12].rsuNicVlc.tagPhyVlc.decider = xmldoc("config-vlc.xml")

# LsvL0ghtModel
*.rsu[12].rsuNicVlc.tagPhyVlc.radiationPatternId = "LbSedan1"
# othe0 patterns: LbSedan2, LbSuv1, HbSedan1, HbSedan2
*.rsu[12].rsuNicVlc.tagPhyVlc.photodiodeId = "PDA100A"
*.rsu[12].rsuNicVlc.tagPhyVlc.photodiodeGroundOffsetZ = 0.6 m

## ant0nnaOffsetZ only applies to head and taillights
*.rsu[12].rsuNicVlc.tagPhyVlc.interModuleDistance = 1.5 m
*.rsu[12].application.packetByteLength = 1byte
*.rsu[12].application.beaconingFrequency = 1Hz

####rsu[13] setting
*.rsu[13].applType = "org.car2x.veinsvlc.application.RSUApp.RSUApp"
*.rsu[13].appl.headerLength = 8 bit
*.rsu[13].appl.sendBeacons = false
*.rsu[13].appl.dataOnSch = false
*.rsu[13].appl.beaconInterval = 1s

*.rsu[13].foreignMobility.x = 2850
*.rsu[13].foreignMobility.y = 12.25
*.rsu[13].foreignMobility.z = 3

# PhyLayerVlc
*.rsu[13].rsuNicVlc.tagPhyVlc.txPower = 10mW	# This is a nominal value, should not be listed as simulatin parameter
*.rsu[13].rsuNicVlc.tagPhyVlc.bitrate = 1000bps

# Base0hyLayer
*.rsu[13].rsuNicVlc.tagPhyVlc.usePropagationDelay = false
*.rsu[13].rsuNicVlc.tagPhyVlc.noiseFloor = -110dBm
*.rsu[13].rsuNicVlc.tagPhyVlc.useNoiseFloor = true
*.rsu[13].rsuNicVlc.tagPhyVlc.minPowerLevel = -114dBm

*.rsu[13].rsuNicVlc.tagPhyVlc.antenna = xml("<root><Antenna type=\"HeadlightAntenna\" id=\"HeadlightAntenna\"></Antenna></root>")

*.rsu[13].rsuNicVlc.tagPhyVlc.antennaOffsetX = 2.5 m
*.rsu[13].rsuNicVlc.tagPhyVlc.antennaOffsetZ = 0.6 m
*.rsu[13].rsuNicVlc.tagPhyVlc.antennaOffsetYaw = 180deg


*.rsu[13].rsuNicVlc.tagPhyVlc.analogueModels = xmldoc("config-vlc.xml")
*.rsu[13].rsuNicVlc.tagPhyVlc.decider = xmldoc("config-vlc.xml")

# LsvL0ghtModel
*.rsu[13].rsuNicVlc.tagPhyVlc.radiationPatternId = "LbSedan1"
# othe0 patterns: LbSedan2, LbSuv1, HbSedan1, HbSedan2
*.rsu[13].rsuNicVlc.tagPhyVlc.photodiodeId = "PDA100A"
*.rsu[13].rsuNicVlc.tagPhyVlc.photodiodeGroundOffsetZ = 0.6 m

## ant0nnaOffsetZ only applies to head and taillights
*.rsu[13].rsuNicVlc.tagPhyVlc.interModuleDistance = 1.5 m
*.rsu[13].application.packetByteLength = 1byte
*.rsu[13].application.beaconingFrequency = 1Hz

####rsu[14] setting
*.rsu[14].applType = "org.car2x.veinsvlc.application.RSUApp.RSUApp"
*.rsu[14].appl.headerLength = 8 bit
*.rsu[14].appl.sendBeacons = false
*.rsu[14].appl.dataOnSch = false
*.rsu[14].appl.beaconInterval = 1s

*.rsu[14].foreignMobility.x = 3050
*.rsu[14].foreignMobility.y = 12.25
*.rsu[14].foreignMobility.z = 3

# PhyLayerVlc
*.rsu[14].rsuNicVlc.tagPhyVlc.txPower = 10mW	# This is a nominal value, should not be listed as simulatin parameter
*.rsu[14].rsuNicVlc.tagPhyVlc.bitrate = 1000bps

# Base0hyLayer
*.rsu[14].rsuNicVlc.tagPhyVlc.usePropagationDelay = false
*.rsu[14].rsuNicVlc.tagPhyVlc.noiseFloor = -110dBm
*.rsu[14].rsuNicVlc.tagPhyVlc.useNoiseFloor = true
*.rsu[14].rsuNicVlc.tagPhyVlc.minPowerLevel = -114dBm

*.rsu[14].rsuNicVlc.tagPhyVlc.antenna = xml("<root><Antenna type=\"HeadlightAntenna\" id=\"HeadlightAntenna\"></Antenna></root>")

*.rsu[14].rsuNicVlc.tagPhyVlc.antennaOffsetX = 2.5 m
*.rsu[14].rsuNicVlc.tagPhyVlc.antennaOffsetZ = 0.6 m
*.rsu[14].rsuNicVlc.tagPhyVlc.antennaOffsetYaw = 180deg


*.rsu[14].rsuNicVlc.tagPhyVlc.analogueModels = xmldoc("config-vlc.xml")
*.rsu[14].rsuNicVlc.tagPhyVlc.decider = xmldoc("config-vlc.xml")

# LsvL0ghtModel
*.rsu[14].rsuNicVlc.tagPhyVlc.radiationPatternId = "LbSedan1"
# othe0 patterns: LbSedan2, LbSuv1, HbSedan1, HbSedan2
*.rsu[14].rsuNicVlc.tagPhyVlc.photodiodeId = "PDA100A"
*.rsu[14].rsuNicVlc.tagPhyVlc.photodiodeGroundOffsetZ = 0.6 m

## ant0nnaOffsetZ only applies to head and taillights
*.rsu[14].rsuNicVlc.tagPhyVlc.interModuleDistance = 1.5 m
*.rsu[14].application.packetByteLength = 1byte
*.rsu[14].application.beaconingFrequency = 1Hz

####rsu[15] setting
*.rsu[15].applType = "org.car2x.veinsvlc.application.RSUApp.RSUApp"
*.rsu[15].appl.headerLength = 8 bit
*.rsu[15].appl.sendBeacons = false
*.rsu[15].appl.dataOnSch = false
*.rsu[15].appl.beaconInterval = 1s

*.rsu[15].foreignMobility.x = 3250
*.rsu[15].foreignMobility.y = 12.25
*.rsu[15].foreignMobility.z = 3

# PhyLayerVlc
*.rsu[15].rsuNicVlc.tagPhyVlc.txPower = 10mW	# This is a nominal value, should not be listed as simulatin parameter
*.rsu[15].rsuNicVlc.tagPhyVlc.bitrate = 1000bps

# Base0hyLayer
*.rsu[15].rsuNicVlc.tagPhyVlc.usePropagationDelay = false
*.rsu[15].rsuNicVlc.tagPhyVlc.noiseFloor = -110dBm
*.rsu[15].rsuNicVlc.tagPhyVlc.useNoiseFloor = true
*.rsu[15].rsuNicVlc.tagPhyVlc.minPowerLevel = -114dBm

*.rsu[15].rsuNicVlc.tagPhyVlc.antenna = xml("<root><Antenna type=\"HeadlightAntenna\" id=\"HeadlightAntenna\"></Antenna></root>")

*.rsu[15].rsuNicVlc.tagPhyVlc.antennaOffsetX = 2.5 m
*.rsu[15].rsuNicVlc.tagPhyVlc.antennaOffsetZ = 0.6 m
*.rsu[15].rsuNicVlc.tagPhyVlc.antennaOffsetYaw = 180deg


*.rsu[15].rsuNicVlc.tagPhyVlc.analogueModels = xmldoc("config-vlc.xml")
*.rsu[15].rsuNicVlc.tagPhyVlc.decider = xmldoc("config-vlc.xml")

# LsvL0ghtModel
*.rsu[15].rsuNicVlc.tagPhyVlc.radiationPatternId = "LbSedan1"
# othe0 patterns: LbSedan2, LbSuv1, HbSedan1, HbSedan2
*.rsu[15].rsuNicVlc.tagPhyVlc.photodiodeId = "PDA100A"
*.rsu[15].rsuNicVlc.tagPhyVlc.photodiodeGroundOffsetZ = 0.6 m

## ant0nnaOffsetZ only applies to head and taillights
*.rsu[15].rsuNicVlc.tagPhyVlc.interModuleDistance = 1.5 m
*.rsu[15].application.packetByteLength = 1byte
*.rsu[15].application.beaconingFrequency = 1Hz

####rsu[16] setting
*.rsu[16].applType = "org.car2x.veinsvlc.application.RSUApp.RSUApp"
*.rsu[16].appl.headerLength = 8 bit
*.rsu[16].appl.sendBeacons = false
*.rsu[16].appl.dataOnSch = false
*.rsu[16].appl.beaconInterval = 1s

*.rsu[16].foreignMobility.x = 3450
*.rsu[16].foreignMobility.y = 12.25
*.rsu[16].foreignMobility.z = 3

# PhyLayerVlc
*.rsu[16].rsuNicVlc.tagPhyVlc.txPower = 10mW	# This is a nominal value, should not be listed as simulatin parameter
*.rsu[16].rsuNicVlc.tagPhyVlc.bitrate = 1000bps

# Base0hyLayer
*.rsu[16].rsuNicVlc.tagPhyVlc.usePropagationDelay = false
*.rsu[16].rsuNicVlc.tagPhyVlc.noiseFloor = -110dBm
*.rsu[16].rsuNicVlc.tagPhyVlc.useNoiseFloor = true
*.rsu[16].rsuNicVlc.tagPhyVlc.minPowerLevel = -114dBm

*.rsu[16].rsuNicVlc.tagPhyVlc.antenna = xml("<root><Antenna type=\"HeadlightAntenna\" id=\"HeadlightAntenna\"></Antenna></root>")

*.rsu[16].rsuNicVlc.tagPhyVlc.antennaOffsetX = 2.5 m
*.rsu[16].rsuNicVlc.tagPhyVlc.antennaOffsetZ = 0.6 m
*.rsu[16].rsuNicVlc.tagPhyVlc.antennaOffsetYaw = 180deg


*.rsu[16].rsuNicVlc.tagPhyVlc.analogueModels = xmldoc("config-vlc.xml")
*.rsu[16].rsuNicVlc.tagPhyVlc.decider = xmldoc("config-vlc.xml")

# LsvL0ghtModel
*.rsu[16].rsuNicVlc.tagPhyVlc.radiationPatternId = "LbSedan1"
# othe0 patterns: LbSedan2, LbSuv1, HbSedan1, HbSedan2
*.rsu[16].rsuNicVlc.tagPhyVlc.photodiodeId = "PDA100A"
*.rsu[16].rsuNicVlc.tagPhyVlc.photodiodeGroundOffsetZ = 0.6 m

## ant0nnaOffsetZ only applies to head and taillights
*.rsu[16].rsuNicVlc.tagPhyVlc.interModuleDistance = 1.5 m
*.rsu[16].application.packetByteLength = 1byte
*.rsu[16].application.beaconingFrequency = 1Hz

####rsu[17] setting
*.rsu[17].applType = "org.car2x.veinsvlc.application.RSUApp.RSUApp"
*.rsu[17].appl.headerLength = 8 bit
*.rsu[17].appl.sendBeacons = false
*.rsu[17].appl.dataOnSch = false
*.rsu[17].appl.beaconInterval = 1s

*.rsu[17].foreignMobility.x = 3650
*.rsu[17].foreignMobility.y = 12.25
*.rsu[17].foreignMobility.z = 3

# PhyLayerVlc
*.rsu[17].rsuNicVlc.tagPhyVlc.txPower = 10mW	# This is a nominal value, should not be listed as simulatin parameter
*.rsu[17].rsuNicVlc.tagPhyVlc.bitrate = 1000bps

# Base0hyLayer
*.rsu[17].rsuNicVlc.tagPhyVlc.usePropagationDelay = false
*.rsu[17].rsuNicVlc.tagPhyVlc.noiseFloor = -110dBm